// Generated for: spectre
// Generated on: Mar 12 16:15:51 2023
// Design library name: combCell45nm
// Design cell name: NOR2X1
// Design view name: schematic
simulator lang=spectre
global 0
