// Generated for: spectre
// Generated on: Oct 25 20:33:46 2023
// Design library name: cad45nm
// Design cell name: AND2XL
// Design view name: schematic
simulator lang=spectre
global 0
