// Generated for: spectre
// Generated on: Oct 31 16:51:18 2023
// Design library name: cad045
// Design cell name: AND3X8
// Design view name: schematic
simulator lang=spectre
global 0
