// Generated for: spectre
// Generated on: Oct 25 13:46:47 2023
// Design library name: cad45nm
// Design cell name: NAND2X2
// Design view name: schematic
simulator lang=spectre
global 0
