// Generated for: spectre
// Generated on: Oct 25 19:52:59 2023
// Design library name: cad45nm
// Design cell name: NOR2XL
// Design view name: schematic
simulator lang=spectre
global 0
