// Generated for: spectre
// Generated on: Oct 25 20:09:00 2023
// Design library name: cad45nm
// Design cell name: OR2X8
// Design view name: schematic
simulator lang=spectre
global 0
