// Generated for: spectre
// Generated on: Oct 25 19:50:10 2023
// Design library name: cad45nm
// Design cell name: NOR2X4
// Design view name: schematic
simulator lang=spectre
global 0
