// Generated for: spectre
// Generated on: Mar  3 18:29:12 2023
// Design library name: combCell45nm
// Design cell name: NAND3X1
// Design view name: schematic
simulator lang=spectre
global 0
