// Generated for: spectre
// Generated on: Oct 16 16:27:24 2023
// Design library name: cad045
// Design cell name: OR3X1
// Design view name: schematic
simulator lang=spectre
global 0
