// Generated for: spectre
// Generated on: Oct 25 14:22:19 2023
// Design library name: cad45nm
// Design cell name: NAND2X8
// Design view name: schematic
simulator lang=spectre
global 0
