// Generated for: spectre
// Generated on: Oct 25 20:07:12 2023
// Design library name: cad45nm
// Design cell name: OR2X2
// Design view name: schematic
simulator lang=spectre
global 0
