// Generated for: spectre
// Generated on: Mar  3 11:50:12 2023
// Design library name: combCell45nm
// Design cell name: NAND2X1
// Design view name: schematic
simulator lang=spectre
global 0
