// Generated for: spectre
// Generated on: Oct 31 16:35:03 2023
// Design library name: cad045
// Design cell name: NOR3XL
// Design view name: schematic
simulator lang=spectre
global 0
