// Generated for: spectre
// Generated on: Oct 31 19:08:47 2023
// Design library name: cad045
// Design cell name: OR3XL
// Design view name: schematic
simulator lang=spectre
global 0
