// Generated for: spectre
// Generated on: Oct 31 16:50:42 2023
// Design library name: cad045
// Design cell name: AND3X2
// Design view name: schematic
simulator lang=spectre
global 0
