// Generated for: spectre
// Generated on: Oct 31 16:14:09 2023
// Design library name: cad045
// Design cell name: NAND3XL
// Design view name: schematic
simulator lang=spectre
global 0
