// Generated for: spectre
// Generated on: Oct 16 15:40:25 2023
// Design library name: cad045
// Design cell name: OR2X1
// Design view name: schematic
simulator lang=spectre
global 0
