// Generated for: spectre
// Generated on: Oct 25 19:51:48 2023
// Design library name: cad45nm
// Design cell name: NOR2X8
// Design view name: schematic
simulator lang=spectre
global 0
