// Generated for: spectre
// Generated on: Oct 16 20:34:32 2023
// Design library name: cad045
// Design cell name: AND3X1
// Design view name: schematic
simulator lang=spectre
global 0
