// Generated for: spectre
// Generated on: Oct 25 20:32:23 2023
// Design library name: cad45nm
// Design cell name: AND2X4
// Design view name: schematic
simulator lang=spectre
global 0
