// Generated for: spectre
// Generated on: Oct 31 19:07:51 2023
// Design library name: cad045
// Design cell name: OR3X2
// Design view name: schematic
simulator lang=spectre
global 0
