// Generated for: spectre
// Generated on: Oct 31 16:13:03 2023
// Design library name: cad045
// Design cell name: NAND3X2
// Design view name: schematic
simulator lang=spectre
global 0
